<?xml version="1.0" encoding="UTF-8"?>

<!-- generated on 06/07/21 22:05:49 by Eclipse SUMO netedit Version 1.8.0
<configuration xmlns:xsi="http://www.w3.org/2001/XMLSchema-instance" xsi:noNamespaceSchemaLocation="http://sumo.dlr.de/xsd/netconvertConfiguration.xsd">

    <input>
        <sumo-net-file value="C:\Users\bum71\SIM\omnetpp-5.6.2\omnetpp-5.6.2\MyTest\MyEthernet\Testing.net.xml"/>
    </input>

    <output>
        <output-file value="C:\Users\bum71\SIM\omnetpp-5.6.2\omnetpp-5.6.2\MyTest\MyEthernet\Testing.net.xml"/>
    </output>

    <processing>
        <geometry.min-radius.fix.railways value="false"/>
        <geometry.max-grade.fix value="false"/>
        <offset.disable-normalization value="true"/>
        <lefthand value="false"/>
    </processing>

    <junctions>
        <no-internal-links value="true"/>
        <no-turnarounds value="true"/>
        <junctions.corner-detail value="5"/>
        <junctions.limit-turn-speed value="5.5"/>
        <rectangular-lane-cut value="false"/>
    </junctions>

    <pedestrian>
        <walkingareas value="false"/>
    </pedestrian>

    <netedit>
        <route-files value="C:\Users\bum71\SIM\omnetpp-5.6.2\omnetpp-5.6.2\MyTest\MyEthernet\Testing.rou.xml"/>
    </netedit>

    <report>
        <aggregate-warnings value="5"/>
    </report>

</configuration>
-->

<net version="1.6" junctionCornerDetail="5" limitTurnSpeed="5.50" xmlns:xsi="http://www.w3.org/2001/XMLSchema-instance" xsi:noNamespaceSchemaLocation="http://sumo.dlr.de/xsd/net_file.xsd">

    <location netOffset="0.00,0.00" convBoundary="0.00,0.00,1200.00,5.00" origBoundary="-10000000000.00,-10000000000.00,10000000000.00,10000000000.00" projParameter="!"/>

    <edge id="gneE0" from="gneJ0" to="gneJ1" priority="-1">
        <lane id="gneE0_0" index="0" speed="30.00" length="1200.00" shape="0.00,-4.80 1200.00,-4.80"/>
        <lane id="gneE0_1" index="1" speed="30.00" length="1200.00" shape="0.00,-1.60 1200.00,-1.60"/>
    </edge>
    <edge id="gneE1" from="gneJ4" to="gneJ5" priority="-1">
        <lane id="gneE1_0" index="0" speed="13.89" length="1200.00" shape="1200.00,9.80 0.00,9.80"/>
        <lane id="gneE1_1" index="1" speed="13.89" length="1200.00" shape="1200.00,6.60 0.00,6.60"/>
    </edge>

    <junction id="gneJ0" type="dead_end" x="0.00" y="0.00" incLanes="" intLanes="" shape="0.00,0.00 0.00,-6.40"/>
    <junction id="gneJ1" type="dead_end" x="1200.00" y="0.00" incLanes="gneE0_0 gneE0_1" intLanes="" shape="1200.00,-6.40 1200.00,0.00"/>
    <junction id="gneJ4" type="dead_end" x="1200.00" y="5.00" incLanes="" intLanes="" shape="1200.00,5.00 1200.00,11.40"/>
    <junction id="gneJ5" type="dead_end" x="0.00" y="5.00" incLanes="gneE1_0 gneE1_1" intLanes="" shape="0.00,11.40 0.00,5.00"/>

</net>
