<?xml version="1.0" encoding="UTF-8"?>

<!-- generated on 07/17/21 20:21:56 by Eclipse SUMO netedit Version 1.8.0
<configuration xmlns:xsi="http://www.w3.org/2001/XMLSchema-instance" xsi:noNamespaceSchemaLocation="http://sumo.dlr.de/xsd/netconvertConfiguration.xsd">

    <input>
        <sumo-net-file value="C:\Users\bum71\SIM\omnetpp-5.6.2\omnetpp-5.6.2\MyTest\Solution\OptimalNetwork.net.xml"/>
    </input>

    <output>
        <output-file value="C:\Users\bum71\SIM\omnetpp-5.6.2\omnetpp-5.6.2\MyTest\Solution\OptimalNetwork.net.xml"/>
    </output>

    <processing>
        <geometry.min-radius.fix.railways value="false"/>
        <geometry.max-grade.fix value="false"/>
        <offset.disable-normalization value="true"/>
        <lefthand value="false"/>
    </processing>

    <junctions>
        <no-internal-links value="true"/>
        <no-turnarounds value="true"/>
        <junctions.corner-detail value="5"/>
        <junctions.limit-turn-speed value="5.5"/>
        <rectangular-lane-cut value="false"/>
    </junctions>

    <pedestrian>
        <walkingareas value="false"/>
    </pedestrian>

    <netedit>
        <route-files value="C:\Users\bum71\SIM\omnetpp-5.6.2\omnetpp-5.6.2\MyTest\Solution\OptimalNetwork45.rou.xml"/>
    </netedit>

    <report>
        <aggregate-warnings value="5"/>
    </report>

</configuration>
-->

<routes xmlns:xsi="http://www.w3.org/2001/XMLSchema-instance" xsi:noNamespaceSchemaLocation="http://sumo.dlr.de/xsd/routes_file.xsd">
    <route edges="gneE0" color="yellow" id="route_0"/>
    <route edges="gneE1" color="yellow" id="route_1"/>
    <route edges="gneE3" color="yellow" id="route_2"/>
    <vehicle id="vehicle_0" depart="0.00" departSpeed="33.33" route="route_0"/>
    <vehicle id="vehicle_1" depart="0.00" departSpeed="33.33" route="route_1"/>
    <vehicle id="vehicle_10" depart="0.00" departSpeed="33.33" route="route_1"/>
    <vehicle id="vehicle_11" depart="0.00" departSpeed="33.33" route="route_2"/>
    <vehicle id="vehicle_12" depart="0.00" departSpeed="33.33" route="route_0"/>
    <vehicle id="vehicle_13" depart="0.00" departSpeed="33.33" route="route_1"/>
    <vehicle id="vehicle_14" depart="0.00" departSpeed="33.33" route="route_2"/>
    <vehicle id="vehicle_15" depart="0.00" departSpeed="33.33" route="route_0"/>
    <vehicle id="vehicle_16" depart="0.00" departSpeed="33.33" route="route_1"/>
    <vehicle id="vehicle_17" depart="0.00" departSpeed="33.33" route="route_2"/>
    <vehicle id="vehicle_18" depart="0.00" departSpeed="33.33" route="route_0"/>
    <vehicle id="vehicle_19" depart="0.00" departSpeed="33.33" route="route_1"/>
    <vehicle id="vehicle_2" depart="0.00" departSpeed="33.33" route="route_2"/>
    <vehicle id="vehicle_20" depart="0.00" departSpeed="33.33" route="route_2"/>
    <vehicle id="vehicle_21" depart="0.00" departSpeed="33.33" route="route_0"/>
    <vehicle id="vehicle_22" depart="0.00" departSpeed="33.33" route="route_1"/>
    <vehicle id="vehicle_23" depart="0.00" departSpeed="33.33" route="route_2"/>
    <vehicle id="vehicle_24" depart="0.00" departSpeed="33.33" route="route_0"/>
    <vehicle id="vehicle_25" depart="0.00" departSpeed="33.33" route="route_1"/>
    <vehicle id="vehicle_26" depart="0.00" departSpeed="33.33" route="route_2"/>
    <vehicle id="vehicle_27" depart="0.00" departSpeed="33.33" route="route_0"/>
    <vehicle id="vehicle_28" depart="0.00" departSpeed="33.33" route="route_1"/>
    <vehicle id="vehicle_29" depart="0.00" departSpeed="33.33" route="route_2"/>
    <vehicle id="vehicle_3" depart="0.00" departSpeed="33.33" route="route_0"/>
    <vehicle id="vehicle_30" depart="0.00" departSpeed="33.33" route="route_0"/>
    <vehicle id="vehicle_31" depart="0.00" departSpeed="33.33" route="route_1"/>
    <vehicle id="vehicle_32" depart="0.00" departSpeed="33.33" route="route_2"/>
    <vehicle id="vehicle_33" depart="0.00" departSpeed="33.33" route="route_0"/>
    <vehicle id="vehicle_34" depart="0.00" departSpeed="33.33" route="route_1"/>
    <vehicle id="vehicle_35" depart="0.00" departSpeed="33.33" route="route_2"/>
    <vehicle id="vehicle_36" depart="0.00" departSpeed="33.33" route="route_0"/>
    <vehicle id="vehicle_37" depart="0.00" departSpeed="33.33" route="route_1"/>
    <vehicle id="vehicle_38" depart="0.00" departSpeed="33.33" route="route_2"/>
    <vehicle id="vehicle_39" depart="0.00" departSpeed="33.33" route="route_0"/>
    <vehicle id="vehicle_4" depart="0.00" departSpeed="33.33" route="route_1"/>
    <vehicle id="vehicle_40" depart="0.00" departSpeed="33.33" route="route_1"/>
    <vehicle id="vehicle_41" depart="0.00" departSpeed="33.33" route="route_2"/>
    <vehicle id="vehicle_42" depart="0.00" departSpeed="33.33" route="route_0"/>
    <vehicle id="vehicle_43" depart="0.00" departSpeed="33.33" route="route_1"/>
    <vehicle id="vehicle_44" depart="0.00" departSpeed="33.33" route="route_2"/>
    <vehicle id="vehicle_5" depart="0.00" departSpeed="33.33" route="route_2"/>
    <vehicle id="vehicle_6" depart="0.00" departSpeed="33.33" route="route_0"/>
    <vehicle id="vehicle_7" depart="0.00" departSpeed="33.33" route="route_1"/>
    <vehicle id="vehicle_8" depart="0.00" departSpeed="33.33" route="route_2"/>
    <vehicle id="vehicle_9" depart="0.00" departSpeed="33.33" route="route_0"/>
</routes>
