<?xml version="1.0" encoding="UTF-8"?>

<!-- generated on 06/09/21 14:02:50 by Eclipse SUMO netedit Version 1.8.0
<configuration xmlns:xsi="http://www.w3.org/2001/XMLSchema-instance" xsi:noNamespaceSchemaLocation="http://sumo.dlr.de/xsd/netconvertConfiguration.xsd">

    <output>
        <output-file value="C:\Users\bum71\SIM\omnetpp-5.6.2\omnetpp-5.6.2\MyTest\Solution\TestNetwork.net.xml"/>
    </output>

    <processing>
        <offset.disable-normalization value="true"/>
    </processing>

    <junctions>
        <no-turnarounds value="true"/>
    </junctions>

    <netedit>
        <route-files value="C:\Users\bum71\SIM\omnetpp-5.6.2\omnetpp-5.6.2\MyTest\Solution\TestNetwork.rou.xml"/>
    </netedit>

    <report>
        <aggregate-warnings value="5"/>
    </report>

</configuration>
-->

<net version="1.6" junctionCornerDetail="5" limitTurnSpeed="5.50" xmlns:xsi="http://www.w3.org/2001/XMLSchema-instance" xsi:noNamespaceSchemaLocation="http://sumo.dlr.de/xsd/net_file.xsd">

    <location netOffset="0.00,0.00" convBoundary="0.00,0.00,2500.00,5.00" origBoundary="10000000000.00,10000000000.00,-10000000000.00,-10000000000.00" projParameter="!"/>

    <edge id="gneE0" from="gneJ0" to="gneJ1" priority="-1">
        <lane id="gneE0_0" index="0" speed="33.33" length="2500.00" shape="0.00,-8.00 2500.00,-8.00"/>
        <lane id="gneE0_1" index="1" speed="33.33" length="2500.00" shape="0.00,-4.80 2500.00,-4.80"/>
        <lane id="gneE0_2" index="2" speed="33.33" length="2500.00" shape="0.00,-1.60 2500.00,-1.60"/>
    </edge>
    <edge id="gneE1" from="gneJ2" to="gneJ3" priority="-1">
        <lane id="gneE1_0" index="0" speed="33.33" length="2500.00" shape="2500.00,13.00 0.00,13.00"/>
        <lane id="gneE1_1" index="1" speed="33.33" length="2500.00" shape="2500.00,9.80 0.00,9.80"/>
        <lane id="gneE1_2" index="2" speed="33.33" length="2500.00" shape="2500.00,6.60 0.00,6.60"/>
    </edge>

    <junction id="gneJ0" type="dead_end" x="0.00" y="0.00" incLanes="" intLanes="" shape="0.00,0.00 0.00,-9.60"/>
    <junction id="gneJ1" type="dead_end" x="2500.00" y="0.00" incLanes="gneE0_0 gneE0_1 gneE0_2" intLanes="" shape="2500.00,-9.60 2500.00,0.00"/>
    <junction id="gneJ2" type="dead_end" x="2500.00" y="5.00" incLanes="" intLanes="" shape="2500.00,5.00 2500.00,14.60"/>
    <junction id="gneJ3" type="dead_end" x="0.00" y="5.00" incLanes="gneE1_0 gneE1_1 gneE1_2" intLanes="" shape="0.00,14.60 0.00,5.00"/>

</net>
