<?xml version="1.0" encoding="UTF-8"?>

<!-- generated on 04/10/21 14:27:29 by Eclipse SUMO netedit Version 1.8.0
<configuration xmlns:xsi="http://www.w3.org/2001/XMLSchema-instance" xsi:noNamespaceSchemaLocation="http://sumo.dlr.de/xsd/netconvertConfiguration.xsd">

    <output>
        <output-file value="C:\Users\bum71\SIM\omnetpp-5.6.2\omnetpp-5.6.2\MyTest\MyEthernet\MyEnvironment.net.xml"/>
    </output>

    <processing>
        <offset.disable-normalization value="true"/>
    </processing>

    <junctions>
        <no-turnarounds value="true"/>
    </junctions>

    <report>
        <aggregate-warnings value="5"/>
    </report>

</configuration>
-->

<net version="1.6" junctionCornerDetail="5" limitTurnSpeed="5.50" xmlns:xsi="http://www.w3.org/2001/XMLSchema-instance" xsi:noNamespaceSchemaLocation="http://sumo.dlr.de/xsd/net_file.xsd">

    <location netOffset="0.00,0.00" convBoundary="101.48,29.59,286.36,31.23" origBoundary="10000000000.00,10000000000.00,-10000000000.00,-10000000000.00" projParameter="!"/>

    <edge id=":gneJ1_0" function="internal">
        <lane id=":gneJ1_0_0" index="0" speed="13.89" length="0.30" shape="192.81,29.13 193.11,29.13"/>
    </edge>

    <edge id="gneE0" from="gneJ0" to="gneJ1" priority="-1">
        <lane id="gneE0_0" index="0" speed="13.89" length="91.34" shape="101.47,29.63 192.81,29.13"/>
    </edge>
    <edge id="gneE1" from="gneJ1" to="gneJ2" priority="-1">
        <lane id="gneE1_0" index="0" speed="13.89" length="93.24" shape="193.11,29.13 286.34,27.99"/>
    </edge>

    <junction id="gneJ0" type="dead_end" x="101.48" y="31.23" incLanes="" intLanes="" shape="101.48,31.23 101.46,28.03"/>
    <junction id="gneJ1" type="priority" x="192.97" y="30.73" incLanes="gneE0_0" intLanes=":gneJ1_0_0" shape="193.13,30.73 193.09,27.53 192.80,27.53 192.82,30.73">
        <request index="0" response="0" foes="0" cont="0"/>
    </junction>
    <junction id="gneJ2" type="dead_end" x="286.36" y="29.59" incLanes="gneE1_0" intLanes="" shape="286.32,26.39 286.36,29.59"/>

    <connection from="gneE0" to="gneE1" fromLane="0" toLane="0" via=":gneJ1_0_0" dir="s" state="M"/>

    <connection from=":gneJ1_0" to="gneE1" fromLane="0" toLane="0" dir="s" state="M"/>

</net>
