[General]
sim-time-limit = 120s
**.vector-recording = false

[Config SwitchedLAN1]
network = EthernetTest
**.hostA.cli.destAddress = "hostB"
**.cli.destAddress = ""
**.cli.sendInterval = exponential(1s)
**.switch*.relayUnit.typename = "MacRelayUnit"
**.cli.reqLength = intuniform(50,1400)*1B
**.cli.respLength = intWithUnit(truncnormal(3000B,3000B))

[Config SwitchedLanPreconf]
extends = SwitchedLAN1
**.switch.macTable.addressTableFile = "switchAddressFile.txt"


